<?xml version="1.0" encoding="UTF-8"?>

<!-- generated on 2023-11-10 16:43:50.277631 by cutRoutes.py UNKNOWN
  options: rn1.net.xml routes.xml <doubleminus>trips-output trips.xml <doubleminus>orig-net cropped_cologne/cologne.net.xml
-->

<routes xmlns:xsi="http://www.w3.org/2001/XMLSchema-instance" xsi:noNamespaceSchemaLocation="http://sumo.dlr.de/xsd/routes_file.xsd">
    <trip depart="21619.37" id="36535_356_0" from="29333611#1" to="216716047#3" type="pkw"/>
    <trip depart="21621.00" id="40230_360_0" from="173101348#4" to="173101348#6" type="pkw"/>
    <trip depart="21623.00" id="34993_353_0" from="25342116#1" to="-36714417#2" type="pkw"/>
    <trip depart="21623.00" id="47720_365_0" from="24721127" to="216716047#3" type="pkw"/>
    <trip depart="21623.00" id="40202_360_0" from="31730899#0" to="-36714417#2" type="pkw"/>
    <trip depart="21625.00" id="39864_360_0" from="28840152#0" to="-36714417#2" type="pkw"/>
    <trip depart="21637.00" id="43696_362_0" from="216740265#0" to="217633188#0" type="pkw"/>
    <trip depart="21640.00" id="37223_357_0" from="31928172" to="-36714417#2" type="pkw"/>
    <trip depart="21647.00" id="35400_354_0" from="10375754#1" to="18228974#1" type="pkw"/>
    <trip depart="21656.00" id="50346_368_0" from="25342114#1" to="-36714417#2" type="pkw"/>
    <trip depart="21663.00" id="48970_366_0" from="-90430103#2" to="81975143#0" type="pkw"/>
    <trip depart="21680.00" id="47657_365_0" from="217633189#1" to="217633188#0" type="pkw"/>
    <trip depart="21684.29" id="49859_367_0" from="-27406116#1" to="8177290#1" type="pkw"/>
    <trip depart="21690.77" id="34887_353_0" from="-154548975#1" to="-124760629#1" type="pkw"/>
    <trip depart="21693.00" id="41099_361_0" from="-31730595#0" to="-36714417#2" type="pkw"/>
    <trip depart="21694.00" id="42416_361_0" from="-8132936#4" to="81975143#0" type="pkw"/>
    <trip depart="21706.29" id="46570_363_0" from="-27406116#1" to="8177290#1" type="pkw"/>
    <trip depart="21707.18" id="43358_362_0" from="-81975143#3" to="-81974522" type="pkw"/>
    <trip depart="21710.78" id="38601_359_0" from="124760629#0" to="27406116#0" type="pkw"/>
    <trip depart="21713.00" id="45430_362_0" from="-134706507#1" to="-36714417#2" type="pkw"/>
    <trip depart="21731.78" id="41131_361_0" from="-81975143#3" to="-81974522" type="pkw"/>
    <trip depart="21734.15" id="46502_363_0" from="124760629#0" to="27406116#0" type="pkw"/>
    <trip depart="21744.00" id="41343_361_0" from="-18228974#3" to="-36714417#2" type="pkw"/>
    <trip depart="21745.00" id="41568_361_0" from="30758173#1" to="-36714417#2" type="pkw"/>
    <trip depart="21746.79" id="39921_360_0" from="-27406116#1" to="-124760629#1" type="pkw"/>
    <trip depart="21748.00" id="43106_362_0" from="173101348#4" to="173101348#6" type="pkw"/>
    <trip depart="21750.48" id="47522_365_0" from="-27406116#1" to="8177289" type="pkw"/>
    <trip depart="21760.00" id="50958_369_0" from="31730660#3" to="-36714417#2" type="pkw"/>
    <trip depart="21763.00" id="49998_368_0" from="125954568" to="-36714417#2" type="pkw"/>
    <trip depart="21765.00" id="39890_360_0" from="8101180#1" to="-35151455" type="pkw"/>
    <trip depart="21765.00" id="47788_365_0" from="216740262#1" to="-36714417#2" type="pkw"/>
    <trip depart="21765.96" id="46982_364_0" from="-81975143#3" to="-81975139" type="pkw"/>
    <trip depart="21766.00" id="36354_356_0" from="31730660#3" to="-36714417#2" type="pkw"/>
    <trip depart="21767.00" id="42723_361_0" from="-25585153#1" to="-36714417#2" type="pkw"/>
    <trip depart="21767.00" id="43852_362_0" from="-30758174#1" to="-36714417#2" type="pkw"/>
    <trip depart="21775.92" id="35881_355_0" from="124760629#0" to="24494409#0" type="pkw"/>
    <trip depart="21797.37" id="45492_363_0" from="29333611#1" to="216716047#3" type="pkw"/>
    <trip depart="21799.00" id="47839_365_0" from="24494409#0" to="-124760629#1" type="pkw"/>
    <trip depart="21806.29" id="39996_360_0" from="-27406116#1" to="27406116#0" type="pkw"/>
    <trip depart="21811.00" id="48502_366_0" from="-30758173#0" to="34436039" type="pkw"/>
    <trip depart="21811.10" id="45828_363_0" from="-173101348#8" to="-36714417#2" type="pkw"/>
    <trip depart="21821.08" id="42010_361_0" from="-154548975#1" to="8177289" type="pkw"/>
    <trip depart="21823.00" id="46744_363_0" from="230306383" to="27406116#0" type="pkw"/>
    <trip depart="21823.56" id="42574_361_0" from="124760629#0" to="27406116#0" type="pkw"/>
    <trip depart="21825.00" id="42610_361_0" from="91757249#1" to="81975143#0" type="pkw"/>
    <trip depart="21826.00" id="45347_362_0" from="-216585355" to="-36714417#2" type="pkw"/>
    <trip depart="21827.29" id="38793_359_0" from="-27406116#1" to="8177289" type="pkw"/>
    <trip depart="21831.00" id="49201_367_0" from="-30758174#1" to="-145464625" type="pkw"/>
    <trip depart="21842.00" id="49357_367_0" from="-154548975#1" to="8177290#1" type="pkw"/>
    <trip depart="21843.00" id="50813_369_0" from="-30758174#1" to="81974524" type="pkw"/>
    <trip depart="21846.50" id="39515_360_0" from="-27406116#1" to="-124760629#1" type="pkw"/>
    <trip depart="21847.00" id="49473_367_0" from="-154548975#1" to="8177290#1" type="pkw"/>
    <trip depart="21848.00" id="52707_370_0" from="134706507#0" to="-36714417#2" type="pkw"/>
    <trip depart="21849.00" id="43730_362_0" from="-29142589#4" to="81974524" type="pkw"/>
    <trip depart="21855.00" id="47212_364_0" from="125954568" to="81974524" type="pkw"/>
    <trip depart="21857.00" id="48793_366_0" from="28840152#0" to="-145464625" type="pkw"/>
    <trip depart="21860.37" id="37703_358_0" from="124760629#0" to="27406116#0" type="pkw"/>
    <trip depart="21861.19" id="38806_359_0" from="-27406116#1" to="-124760629#1" type="pkw"/>
    <trip depart="21862.00" id="39984_360_0" from="230306384" to="8177288#0" type="pkw"/>
    <trip depart="21888.00" id="38385_359_0" from="27611964#0" to="81975143#0" type="pkw"/>
    <trip depart="21890.00" id="54103_371_0" from="30738629#1" to="81974524" type="pkw"/>
    <trip depart="21890.21" id="43534_362_0" from="124760629#0" to="27406116#0" type="pkw"/>
    <trip depart="21891.00" id="42144_361_0" from="-91757249#2" to="36901735" type="pkw"/>
    <trip depart="21895.00" id="45954_363_0" from="142169748" to="-36714417#2" type="pkw"/>
    <trip depart="21900.30" id="36019_355_0" from="-81975143#3" to="-81974522" type="pkw"/>
    <trip depart="21902.91" id="39526_360_0" from="-27406116#1" to="-124760629#1" type="pkw"/>
    <trip depart="21903.00" id="40049_360_0" from="-30758174#1" to="-145464625" type="pkw"/>
    <trip depart="21903.95" id="41634_361_0" from="124760629#0" to="27406116#0" type="pkw"/>
    <trip depart="21905.58" id="48460_366_0" from="-154548975#1" to="8177289" type="pkw"/>
    <trip depart="21908.51" id="39361_360_0" from="-81975143#3" to="-81974522" type="pkw"/>
    <trip depart="21913.25" id="52502_370_0" from="-27406116#1" to="-124760629#1" type="pkw"/>
    <trip depart="21917.33" id="51698_370_0" from="-216716047#3" to="-29333611#2" type="pkw"/>
    <trip depart="21921.98" id="36848_357_0" from="-81975143#3" to="-81974522" type="pkw"/>
    <trip depart="21922.54" id="38348_359_0" from="-27406116#1" to="-124760629#1" type="pkw"/>
    <trip depart="21922.93" id="46984_364_0" from="-27406116#1" to="-124760629#1" type="pkw"/>
    <trip depart="21928.00" id="54388_371_0" from="-30758174#1" to="-36714417#2" type="pkw"/>
    <trip depart="21933.37" id="50681_368_0" from="81975143#0" to="81975143#0" type="pkw"/>
    <trip depart="21939.08" id="38391_359_0" from="-27406116#1" to="-124760629#1" type="pkw"/>
    <trip depart="21945.00" id="52758_370_0" from="-31730649#0" to="81975143#0" type="pkw"/>
    <trip depart="21945.52" id="45715_363_0" from="-27406116#1" to="-124760629#1" type="pkw"/>
    <trip depart="21945.86" id="52070_370_0" from="-81975143#3" to="-81974522" type="pkw"/>
    <trip depart="21949.20" id="51904_370_0" from="81974524" to="81975143#0" type="pkw"/>
    <trip depart="21957.00" id="49821_367_0" from="4044270#0" to="81975143#0" type="pkw"/>
    <trip depart="21958.12" id="39375_360_0" from="124760629#0" to="-27195800" type="pkw"/>
    <trip depart="21958.81" id="50822_369_0" from="-81975143#3" to="-81975139" type="pkw"/>
    <trip depart="21959.66" id="49182_367_0" from="-81975143#3" to="-81974522" type="pkw"/>
    <trip depart="21964.55" id="55674_372_0" from="-154548975#1" to="-124760629#1" type="pkw"/>
    <trip depart="21969.00" id="45502_363_0" from="10375734#0" to="216716047#3" type="pkw"/>
    <trip depart="21969.84" id="40038_360_0" from="81975143#0" to="81975143#0" type="pkw"/>
    <trip depart="21974.36" id="43336_362_0" from="-27406116#1" to="-124760629#1" type="pkw"/>
    <trip depart="21975.00" id="51596_370_0" from="4044270#0" to="81975143#0" type="pkw"/>
    <trip depart="21975.50" id="45583_363_0" from="-27406116#1" to="-124760629#1" type="pkw"/>
    <trip depart="21980.26" id="43710_362_0" from="81974524" to="81975143#0" type="pkw"/>
    <trip depart="21982.00" id="38756_359_0" from="25342116#1" to="-36714417#2" type="pkw"/>
    <trip depart="21983.08" id="51565_370_0" from="-27406116#1" to="8177289" type="pkw"/>
    <trip depart="21988.00" id="53069_371_0" from="216740265#0" to="18228974#1" type="pkw"/>
    <trip depart="21988.60" id="34893_353_0" from="81974524" to="81975143#0" type="pkw"/>
    <trip depart="21994.90" id="52168_370_0" from="-27406116#1" to="8177289" type="pkw"/>
    <trip depart="21998.00" id="54075_371_0" from="24721127" to="216716047#3" type="pkw"/>
    <trip depart="22000.82" id="47597_365_0" from="81975143#0" to="81975143#0" type="pkw"/>
    <trip depart="22001.84" id="46627_363_0" from="124760629#0" to="-145127858" type="pkw"/>
    <trip depart="22005.30" id="38646_359_0" from="-27406116#1" to="-124760629#1" type="pkw"/>
    <trip depart="22007.00" id="46573_363_0" from="230306383" to="-124760629#1" type="pkw"/>
    <trip depart="22010.00" id="52607_370_0" from="30738629#1" to="36901735" type="pkw"/>
    <trip depart="22010.00" id="57411_374_0" from="-25585153#1" to="217633188#0" type="pkw"/>
    <trip depart="22012.77" id="43225_362_0" from="-27406116#1" to="-124760629#1" type="pkw"/>
    <trip depart="22015.00" id="39570_360_0" from="28840152#0" to="-145464625" type="pkw"/>
    <trip depart="22020.00" id="43003_362_0" from="25342116#1" to="81975143#0" type="pkw"/>
    <trip depart="22021.00" id="51281_369_0" from="27611964#0" to="173101348#6" type="pkw"/>
    <trip depart="22024.05" id="38822_359_0" from="-81975143#3" to="-81974522" type="pkw"/>
    <trip depart="22024.54" id="36898_357_0" from="81975143#0" to="81975143#0" type="pkw"/>
    <trip depart="22026.96" id="45363_362_0" from="-27406116#1" to="-124760629#1" type="pkw"/>
    <trip depart="22027.00" id="39326_360_0" from="216740265#0" to="81975143#0" type="pkw"/>
    <trip depart="22027.15" id="48796_366_0" from="-217633185" to="27406116#0" type="pkw"/>
    <trip depart="22027.21" id="47398_364_0" from="81974524" to="81975143#0" type="pkw"/>
    <trip depart="22028.00" id="46156_363_0" from="125954568" to="81975143#0" type="pkw"/>
    <trip depart="22028.41" id="49285_367_0" from="81975143#0" to="81975143#0" type="pkw"/>
    <trip depart="22031.00" id="54930_372_0" from="31730660#3" to="-36714417#2" type="pkw"/>
    <trip depart="22041.00" id="57427_374_0" from="24494409#0" to="8177289" type="pkw"/>
    <trip depart="22041.58" id="52420_370_0" from="-18228974#3" to="217633189#1" type="pkw"/>
    <trip depart="22042.00" id="51347_369_0" from="18228974#1" to="18228974#1" type="pkw"/>
    <trip depart="22046.01" id="40732_360_0" from="81975143#0" to="81975143#0" type="pkw"/>
    <trip depart="22047.38" id="46082_363_0" from="124760629#0" to="27195798#1" type="pkw"/>
    <trip depart="22048.00" id="42842_361_0" from="216740265#0" to="-36714417#2" type="pkw"/>
    <trip depart="22048.29" id="41959_361_0" from="-27406116#1" to="-124760629#1" type="pkw"/>
    <trip depart="22048.89" id="38193_359_0" from="-8177290#1" to="8177288#0" type="pkw"/>
    <trip depart="22053.41" id="50421_368_0" from="81975143#0" to="81975143#0" type="pkw"/>
    <trip depart="22056.00" id="42436_361_0" from="24721127" to="216716047#3" type="pkw"/>
    <trip depart="22058.00" id="51735_370_0" from="-134706507#1" to="-145464625" type="pkw"/>
    <trip depart="22059.00" id="55071_372_0" from="204125847" to="-36714417#2" type="pkw"/>
    <trip depart="22062.00" id="57493_374_0" from="31730660#3" to="81975143#0" type="pkw"/>
    <trip depart="22062.00" id="41190_361_0" from="27195798#2" to="8177289" type="pkw"/>
    <trip depart="22062.15" id="46458_363_0" from="-81975143#3" to="-81974522" type="pkw"/>
    <trip depart="22065.00" id="48670_366_0" from="31730798#0" to="81975143#0" type="pkw"/>
    <trip depart="22066.00" id="43612_362_0" from="-134706507#1" to="81975143#0" type="pkw"/>
    <trip depart="22066.00" id="59105_375_0" from="91757249#1" to="81975143#0" type="pkw"/>
    <trip depart="22066.00" id="48317_365_0" from="216740265#0" to="81975143#0" type="pkw"/>
    <trip depart="22068.00" id="53152_371_0" from="90640766" to="-36714417#2" type="pkw"/>
    <trip depart="22073.00" id="51865_370_0" from="31730660#3" to="81975143#0" type="pkw"/>
    <trip depart="22084.81" id="46985_364_0" from="-81975143#3" to="-81974522" type="pkw"/>
    <trip depart="22087.13" id="47480_364_0" from="81975143#0" to="81975143#0" type="pkw"/>
    <trip depart="22090.43" id="46199_363_0" from="-154548975#1" to="8177290#1" type="pkw"/>
    <trip depart="22091.00" id="44855_362_0" from="30424966" to="-36714417#2" type="pkw"/>
    <trip depart="22101.00" id="44514_362_0" from="28840152#0" to="-145464625" type="pkw"/>
    <trip depart="22101.00" id="42711_361_0" from="25342116#1" to="-36714417#2" type="pkw"/>
    <trip depart="22103.93" id="42990_362_0" from="217633189#1" to="217633189#1" type="pkw"/>
    <trip depart="22106.00" id="57688_374_0" from="-30758173#2" to="-36714417#2" type="pkw"/>
    <trip depart="22107.35" id="48538_366_0" from="81974524" to="81975143#0" type="pkw"/>
    <trip depart="22108.80" id="47400_364_0" from="-154548975#1" to="27195799" type="pkw"/>
    <trip depart="22110.00" id="55199_372_0" from="-30758174#1" to="-36714417#2" type="pkw"/>
    <trip depart="22115.38" id="37949_358_0" from="81975143#0" to="81975143#0" type="pkw"/>
    <trip depart="22118.00" id="47723_365_0" from="-18228974#3" to="-36714417#2" type="pkw"/>
    <trip depart="22124.48" id="42331_361_0" from="-27406116#1" to="-124760629#1" type="pkw"/>
    <trip depart="22131.82" id="48148_365_0" from="81975143#0" to="81975143#0" type="pkw"/>
    <trip depart="22137.00" id="57527_374_0" from="134706507#0" to="81975143#0" type="pkw"/>
    <trip depart="22139.00" id="53461_371_0" from="-134706507#1" to="-36714417#2" type="pkw"/>
    <trip depart="22141.00" id="51099_369_0" from="134706507#0" to="81975143#0" type="pkw"/>
    <trip depart="22143.11" id="52124_370_0" from="81975143#0" to="81975143#0" type="pkw"/>
    <trip depart="22143.72" id="36196_355_0" from="31255180#1" to="30779824" type="pkw"/>
    <trip depart="22149.00" id="58715_375_0" from="134706507#0" to="81975143#0" type="pkw"/>
    <trip depart="22151.22" id="42500_361_0" from="81975143#0" to="81975143#0" type="pkw"/>
    <trip depart="22151.54" id="49449_367_0" from="-27406116#1" to="-124760629#1" type="pkw"/>
    <trip depart="22151.65" id="49752_367_0" from="81975143#0" to="81975143#0" type="pkw"/>
    <trip depart="22153.70" id="49856_367_0" from="81975143#0" to="81975143#0" type="pkw"/>
    <trip depart="22158.91" id="53561_371_0" from="81975143#0" to="81975143#0" type="pkw"/>
    <trip depart="22161.62" id="42307_361_0" from="-27406116#1" to="8177289" type="pkw"/>
    <trip depart="22161.99" id="37509_358_0" from="-81975143#3" to="-81974522" type="pkw"/>
    <trip depart="22164.65" id="52720_370_0" from="8177290#1" to="217633189#1" type="pkw"/>
    <trip depart="22165.00" id="49043_366_0" from="134706507#0" to="81975143#0" type="pkw"/>
    <trip depart="22167.00" id="43510_362_0" from="216740265#0" to="81975143#0" type="pkw"/>
    <trip depart="22170.38" id="44364_362_0" from="36714417#0" to="173101348#0" type="pkw"/>
    <trip depart="22171.00" id="54165_371_0" from="-91757249#2" to="81975143#0" type="pkw"/>
    <trip depart="22173.51" id="41936_361_0" from="-154548975#1" to="8177290#1" type="pkw"/>
    <trip depart="22173.85" id="46168_363_0" from="-154548975#1" to="27195799" type="pkw"/>
    <trip depart="22181.17" id="54411_371_0" from="81975143#0" to="81975143#0" type="pkw"/>
    <trip depart="22195.05" id="49455_367_0" from="124760629#0" to="27406116#0" type="pkw"/>
    <trip depart="22199.00" id="55479_372_0" from="-30758173#2" to="-36714417#2" type="pkw"/>
    <trip depart="22199.40" id="42625_361_0" from="81975143#0" to="81975143#0" type="pkw"/>
    <trip depart="22202.16" id="45688_363_0" from="-154548975#1" to="8177289" type="pkw"/>
    <trip depart="22206.04" id="43427_362_0" from="81975143#0" to="81975143#0" type="pkw"/>
    <trip depart="22207.69" id="46114_363_0" from="81975143#0" to="81975143#0" type="pkw"/>
    <trip depart="22208.63" id="51468_369_0" from="31255180#1" to="30779824" type="pkw"/>
    <trip depart="22211.41" id="44049_362_0" from="-81975143#3" to="-81974522" type="pkw"/>
    <trip depart="22214.00" id="52104_370_0" from="216740265#0" to="81975143#0" type="pkw"/>
    <trip depart="22215.41" id="37730_358_0" from="81975143#0" to="81975143#0" type="pkw"/>
    <trip depart="22215.86" id="53587_371_0" from="-8177290#1" to="27406116#0" type="pkw"/>
    <trip depart="22216.00" id="58943_375_0" from="28840152#0" to="-36714417#2" type="pkw"/>
    <trip depart="22216.67" id="41730_361_0" from="81975143#0" to="81975143#0" type="pkw"/>
    <trip depart="22216.80" id="39943_360_0" from="124760629#0" to="27406116#0" type="pkw"/>
    <trip depart="22217.01" id="42106_361_0" from="81975143#0" to="81975143#0" type="pkw"/>
    <trip depart="22217.54" id="39132_360_0" from="-27406116#1" to="8177289" type="pkw"/>
    <trip depart="22220.82" id="52829_371_0" from="81974524" to="81975143#0" type="pkw"/>
    <trip depart="22227.00" id="61971_376_0" from="125954568" to="81975143#0" type="pkw"/>
    <trip depart="22232.83" id="42081_361_0" from="-81975143#3" to="-81974522" type="pkw"/>
    <trip depart="22233.41" id="40101_360_0" from="81975143#0" to="81975143#0" type="pkw"/>
    <trip depart="22239.04" id="37008_357_0" from="81975143#0" to="81975143#0" type="pkw"/>
    <trip depart="22239.57" id="47862_365_0" from="81975143#0" to="81975143#0" type="pkw"/>
    <trip depart="22240.00" id="50465_368_0" from="-30758173#2" to="-36714417#2" type="pkw"/>
    <trip depart="22241.38" id="38741_359_0" from="8177290#1" to="217633189#1" type="pkw"/>
    <trip depart="22243.00" id="58346_375_0" from="25342116#1" to="-36714417#2" type="pkw"/>
    <trip depart="22243.48" id="41426_361_0" from="-27406116#1" to="8177289" type="pkw"/>
    <trip depart="22244.00" id="58884_375_0" from="31730660#3" to="-31730595#0" type="pkw"/>
    <trip depart="22244.00" id="49247_367_0" from="-25585153#1" to="43520297#0" type="pkw"/>
    <trip depart="22247.24" id="48834_366_0" from="-81975143#3" to="-81974522" type="pkw"/>
    <trip depart="22247.84" id="48321_365_0" from="-8177290#1" to="27406116#0" type="pkw"/>
    <trip depart="22249.00" id="62952_377_0" from="27611964#0" to="81975143#0" type="pkw"/>
    <trip depart="22249.90" id="63207_377_0" from="-27406116#1" to="-124760629#1" type="pkw"/>
    <trip depart="22250.17" id="50506_368_0" from="36714417#0" to="25342114#1" type="pkw"/>
    <trip depart="22252.82" id="49520_367_0" from="-154548975#1" to="8177289" type="pkw"/>
    <trip depart="22252.99" id="55465_372_0" from="-81975143#3" to="-81974522" type="pkw"/>
    <trip depart="22253.79" id="43056_362_0" from="-8177290#1" to="8177288#0" type="pkw"/>
    <trip depart="22255.05" id="45796_363_0" from="-81975143#3" to="-81975139" type="pkw"/>
    <trip depart="22255.97" id="38675_359_0" from="81975143#0" to="81975143#0" type="pkw"/>
    <trip depart="22258.43" id="38835_359_0" from="-8177290#1" to="27406116#0" type="pkw"/>
    <trip depart="22263.75" id="43755_362_0" from="81975143#0" to="81975143#0" type="pkw"/>
    <trip depart="22264.00" id="57854_375_0" from="134706507#0" to="173101348#6" type="pkw"/>
    <trip depart="22264.93" id="40727_360_0" from="-8177290#1" to="27406116#0" type="pkw"/>
    <trip depart="22266.23" id="38694_359_0" from="-217633185" to="8177288#0" type="pkw"/>
    <trip depart="22266.25" id="49436_367_0" from="81975143#0" to="81975143#0" type="pkw"/>
    <trip depart="22268.51" id="49947_367_0" from="81974524" to="81975143#0" type="pkw"/>
    <trip depart="22269.67" id="43069_362_0" from="81975143#0" to="81975143#0" type="pkw"/>
    <trip depart="22273.00" id="61212_376_0" from="27195799" to="8177290#1" type="pkw"/>
    <trip depart="22274.00" id="48584_366_0" from="-134706507#1" to="-36714417#2" type="pkw"/>
    <trip depart="22275.00" id="61632_376_0" from="31928102#0" to="-36714417#2" type="pkw"/>
    <trip depart="22275.54" id="44288_362_0" from="36714417#0" to="25585153#2" type="pkw"/>
    <trip depart="22276.04" id="45372_362_0" from="-217633185" to="8177288#0" type="pkw"/>
    <trip depart="22278.00" id="64527_378_0" from="-25585153#1" to="81975143#0" type="pkw"/>
    <trip depart="22278.41" id="49905_367_0" from="81975143#0" to="81975143#0" type="pkw"/>
    <trip depart="22279.00" id="54364_371_0" from="31730899#0" to="217633188#0" type="pkw"/>
    <trip depart="22284.14" id="48937_366_0" from="81974524" to="81975143#0" type="pkw"/>
    <trip depart="22284.20" id="43418_362_0" from="-173101348#8" to="173101348#0" type="pkw"/>
    <trip depart="22285.00" id="46442_363_0" from="-81975143#3" to="-81974522" type="pkw"/>
    <trip depart="22286.01" id="42645_361_0" from="81974524" to="81975143#0" type="pkw"/>
    <trip depart="22286.23" id="61392_376_0" from="-154548975#1" to="8177290#1" type="pkw"/>
    <trip depart="22287.07" id="45636_363_0" from="81975143#0" to="81975143#0" type="pkw"/>
    <trip depart="22290.37" id="64301_378_0" from="29333611#1" to="216716047#3" type="pkw"/>
    <trip depart="22290.91" id="43201_362_0" from="81975143#0" to="81975143#0" type="pkw"/>
    <trip depart="22292.94" id="43288_362_0" from="81975143#0" to="81975143#0" type="pkw"/>
    <trip depart="22295.21" id="49377_367_0" from="-81975143#3" to="-81975139" type="pkw"/>
    <trip depart="22295.84" id="43421_362_0" from="-8177290#1" to="27406116#0" type="pkw"/>
    <trip depart="22298.00" id="57344_374_0" from="134706507#0" to="173101348#6" type="pkw"/>
    <trip depart="22298.53" id="42718_361_0" from="-216716047#3" to="43520297#0" type="pkw"/>
    <trip depart="22298.87" id="45052_362_0" from="81975143#0" to="81975143#0" type="pkw"/>
    <trip depart="22299.33" id="50164_368_0" from="81974524" to="81975143#0" type="pkw"/>
    <trip depart="22300.00" id="58719_375_0" from="216740262#1" to="217633188#0" type="pkw"/>
    <trip depart="22300.07" id="47885_365_0" from="-154548975#1" to="8177289" type="pkw"/>
    <trip depart="22306.20" id="59806_376_0" from="-81975143#3" to="-81975139" type="pkw"/>
    <trip depart="22307.72" id="50605_368_0" from="81975143#0" to="81975143#0" type="pkw"/>
    <trip depart="22308.00" id="49683_367_0" from="31730553" to="18228974#1" type="pkw"/>
    <trip depart="22310.13" id="52389_370_0" from="81975143#0" to="81975143#0" type="pkw"/>
    <trip depart="22312.14" id="56831_374_0" from="124760629#0" to="8177289" type="pkw"/>
    <trip depart="22314.00" id="63045_377_0" from="28840152#0" to="-145464625" type="pkw"/>
    <trip depart="22314.00" id="64784_378_0" from="-30758173#2" to="217633188#0" type="pkw"/>
    <trip depart="22314.28" id="45152_362_0" from="-154548975#1" to="27195799" type="pkw"/>
    <trip depart="22315.50" id="40178_360_0" from="-27406116#1" to="8177289" type="pkw"/>
    <trip depart="22316.00" id="63242_377_0" from="31730660#3" to="-36714417#2" type="pkw"/>
    <trip depart="22321.00" id="61155_376_0" from="25342114#1" to="-35151455" type="pkw"/>
    <trip depart="22321.00" id="54427_371_0" from="-25585153#1" to="81975143#0" type="pkw"/>
    <trip depart="22326.00" id="63318_377_0" from="134706507#0" to="217633188#0" type="pkw"/>
    <trip depart="22327.00" id="52555_370_0" from="31730660#3" to="-35151455" type="pkw"/>
    <trip depart="22331.66" id="57974_375_0" from="-216716047#3" to="43520297#0" type="pkw"/>
    <trip depart="22332.02" id="36251_356_0" from="81974524" to="81975143#0" type="pkw"/>
    <trip depart="22333.73" id="51257_369_0" from="-154548975#1" to="-145127858" type="pkw"/>
    <trip depart="22334.19" id="52787_371_0" from="81975143#0" to="81975143#0" type="pkw"/>
    <trip depart="22337.00" id="48400_366_0" from="91757249#1" to="81975143#0" type="pkw"/>
    <trip depart="22338.85" id="42977_361_0" from="81975143#0" to="81975143#0" type="pkw"/>
    <trip depart="22339.00" id="55335_372_0" from="27195799" to="8177288#0" type="pkw"/>
    <trip depart="22339.15" id="58157_375_0" from="-81975143#3" to="-81975139" type="pkw"/>
    <trip depart="22342.00" id="57638_374_0" from="30424966" to="-35151455" type="pkw"/>
    <trip depart="22343.36" id="50955_369_0" from="-81975143#3" to="-81975139" type="pkw"/>
    <trip depart="22343.72" id="54707_372_0" from="31255180#1" to="-43521457#3" type="pkw"/>
    <trip depart="22345.90" id="41206_361_0" from="81974524" to="81975143#0" type="pkw"/>
    <trip depart="22347.00" id="62376_376_0" from="25342116#1" to="-36714417#2" type="pkw"/>
    <trip depart="22347.34" id="52680_370_0" from="81974524" to="81975143#0" type="pkw"/>
    <trip depart="22351.66" id="43866_362_0" from="81975143#0" to="81975143#0" type="pkw"/>
    <trip depart="22355.00" id="51757_370_0" from="31730553" to="-35151455" type="pkw"/>
    <trip depart="22358.00" id="59230_375_0" from="-31730595#0" to="43520297#0" type="pkw"/>
    <trip depart="22359.00" id="65183_379_0" from="217633189#1" to="217633188#0" type="pkw"/>
    <trip depart="22360.05" id="36482_356_0" from="81975143#0" to="81975143#0" type="pkw"/>
    <trip depart="22360.75" id="47554_365_0" from="-154548975#1" to="8177289" type="pkw"/>
    <trip depart="22361.23" id="61868_376_0" from="124760629#0" to="-145127858" type="pkw"/>
    <trip depart="22364.52" id="43078_362_0" from="-81975143#3" to="-81975139" type="pkw"/>
    <trip depart="22368.25" id="56210_373_0" from="36714417#0" to="31730740#0" type="pkw"/>
    <trip depart="22370.00" id="59073_375_0" from="-134706507#1" to="-36714417#2" type="pkw"/>
    <trip depart="22370.10" id="50745_368_0" from="81974524" to="81975143#0" type="pkw"/>
    <trip depart="22370.16" id="39711_360_0" from="81975143#0" to="81975143#0" type="pkw"/>
    <trip depart="22370.19" id="45163_362_0" from="81975143#0" to="81975143#0" type="pkw"/>
    <trip depart="22371.35" id="47515_365_0" from="-8177290#1" to="8177288#0" type="pkw"/>
    <trip depart="22372.79" id="50973_369_0" from="81975143#0" to="81975143#0" type="pkw"/>
    <trip depart="22373.00" id="50883_369_0" from="216740265#0" to="81975143#0" type="pkw"/>
    <trip depart="22373.00" id="56153_373_0" from="90640766" to="-145464625" type="pkw"/>
    <trip depart="22375.00" id="67096_380_0" from="25342114#1" to="-36714417#2" type="pkw"/>
    <trip depart="22376.82" id="51827_370_0" from="-27406116#1" to="-124760629#1" type="pkw"/>
    <trip depart="22378.00" id="67305_380_0" from="38047218" to="-36714417#2" type="pkw"/>
    <trip depart="22379.94" id="43209_362_0" from="81974524" to="81975143#0" type="pkw"/>
    <trip depart="22380.41" id="49229_367_0" from="81975143#0" to="81975143#0" type="pkw"/>
    <trip depart="22380.62" id="55458_372_0" from="81975143#0" to="81975143#0" type="pkw"/>
    <trip depart="22381.73" id="56883_374_0" from="-154548975#1" to="-145127858" type="pkw"/>
    <trip depart="22381.81" id="48200_365_0" from="-81975143#3" to="-81975139" type="pkw"/>
    <trip depart="22382.00" id="49619_367_0" from="25342114#1" to="-36714417#2" type="pkw"/>
    <trip depart="22382.00" id="53267_371_0" from="25342116#1" to="-36714417#2" type="pkw"/>
    <trip depart="22382.88" id="40646_360_0" from="81975143#0" to="81975143#0" type="pkw"/>
    <trip depart="22383.95" id="46301_363_0" from="-217633185" to="8177288#0" type="pkw"/>
    <trip depart="22386.98" id="53353_371_0" from="-173101348#8" to="31730798#2" type="pkw"/>
    <trip depart="22387.31" id="48189_365_0" from="81974524" to="81975143#0" type="pkw"/>
    <trip depart="22388.22" id="50154_368_0" from="-18228974#3" to="-31730534" type="pkw"/>
    <trip depart="22389.00" id="58696_375_0" from="-27195800" to="-124760629#1" type="pkw"/>
    <trip depart="22389.04" id="38436_359_0" from="81975143#0" to="81975143#0" type="pkw"/>
    <trip depart="22390.00" id="66336_380_0" from="10375754#1" to="-36714417#2" type="pkw"/>
    <trip depart="22390.54" id="54231_371_0" from="-27406116#1" to="-124760629#1" type="pkw"/>
    <trip depart="22391.00" id="59267_375_0" from="-120785042" to="8177288#0" type="pkw"/>
    <trip depart="22392.00" id="52597_370_0" from="-134706507#1" to="81974524" type="pkw"/>
    <trip depart="22392.47" id="61564_376_0" from="-81975143#3" to="-81974522" type="pkw"/>
    <trip depart="22393.06" id="46880_364_0" from="81975143#0" to="81975143#0" type="pkw"/>
    <trip depart="22394.45" id="48437_366_0" from="81975143#0" to="81975143#0" type="pkw"/>
    <trip depart="22401.30" id="43957_362_0" from="81975143#0" to="81975143#0" type="pkw"/>
    <trip depart="22402.40" id="36630_356_0" from="-217633185" to="8177288#0" type="pkw"/>
    <trip depart="22404.00" id="51871_370_0" from="10375754#1" to="-31730649#0" type="pkw"/>
    <trip depart="22406.69" id="38048_358_0" from="81975143#0" to="81975143#0" type="pkw"/>
    <trip depart="22407.00" id="52300_370_0" from="-4044270#2" to="81975143#0" type="pkw"/>